0.AAAAYcQ-d8Id1UWUqlgBK4PYFZ2QKDDswG5Ol8sqWywlDxlZAM8.AgABAAAAAAAGV_bv21oQQ4ROqh0_1-tAAQDs_wIA9P8EFg28ofg12RPkNwXzEVLtX3V1mZyoVEopJ8F06aXkoAtm1xqZGL9kIINxyqbGvEqdgJWKxU0vGFarfVTgZR8Zd0vlvjzjFWy15E22VENPinZV0XGT81DOkgFULkeT6xa3Q4Plkd-E9sjtjWzI5f1TiCZimWdQk_zgVbecw1I2isSwlRx_yKWSNbVwTLvMr4Gsq0UTit8hzkqlaUzya-lLrs6mNEfkhy8a8nDIWDaKvQbxinCd4Jha588seq_V5JTAJ2TioO-VArZWrt5H4Z5O0KQLwtT6cInhU9q2ZicGcEsYMifIkgD5snMEQSwf4Ko0Z2z9jpE81K6B6lbjBdL4CUz5sBq-CFX-50vPQyXYQY9pjRSsZQWhqf_wYUvmM57lbh-dG3Crd77nHPm-kuklKOMJ6dAt4N2HUzYsNdZf6MOzkgL5eZZoEdryO9bzXcnzFzfWNjHSSGtNSkB_S0aKidQ5SKGyg6mTFmHd6kkRYom7zpNZ-3cjLimba034C8BuKZDTzRAkTj-QaUGRTxc8VU7jS9jEzqRtJ6YhW5iiHx_QNj5-55hmdBwm9o5GUZq7yqygAEorFGuQkS3wAXt_b2iP66_96f3ajoSCZL7jhFUrXHOOiIOG7eSN0lYgCIPOhWsUlKZeXiuVImntxR8418wL5pRpKnzzRYYj3CC-OzYvPT8KSVHXgCZ4dCKe5jYM5BCYuLX0GOPvBDG2K2HKH95xLlRsvlERJmWaVt04NAkduv9FQCUkyzaZSF4BrC0oLeRkkG98-oC68UGSeTlCBiEP9PTRFud_Hknp3w__BT6X8L1OhK_GWEEOPkikJIGaaU-4_U1PYM4N9n0gXMJHWCAY-dp9SwNQ0B5nwYSjU6J4_A3tM4CHRfRc6N2kgTdwMcPeUuSf4iBH0K9Gmhr-jBjRQXGWRZSlpZFW239fOxAi5LQPki1lTDA